[TITLE]
;com consumos da semana de 5 a 13 de agosto de 2018
       


[JUNCTIONS]
;ID              Elev         Demand       Pattern
;--------------- ------------ ------------ ----------------
000000006        29.4754      1.000000     P000000006       
000000013        4.0270       1.000000     P000000013       
000000014        3.9997       1.000000     P000000014       
000000022        28.6385      1.000000     P000000022       
000000025        14.3721      1.000000     P000000025       
000000026        12.1907      1.000000     P000000026       
000000027        13.3833      1.000000     P000000027       
000000034        24.1314      1.000000     P000000034       
000000038        7.9535       1.000000     P000000038       
000000042        37.6752      0.000000            
000000044        27.1554      0.000000            
000000046        26.9559      1.000000     P000000046       
000000106        2.6900       1.000000     P000000106       
000000108        10.8641      0.000000                      
000000168        31.6200      0.000000            
000000170        3.6100       0.000000            
000000172        32.7860      0.000000            
000001001        18.1452      1.000000     P000001001       
000001002        22.5020      1.000000     P000001002       
000001003        22.1368      1.000000     P000001003       
000001004        22.4608      1.000000     P000001004       
000001005        19.7028      1.000000     P000001005       
000001006        22.2322      1.000000     P000001006       
000001007        20.5903      1.000000     P000001007       
000001008        19.9423      1.000000     P000001008       
000001009        18.1247      1.000000     P000001009       
000001010        16.5813      1.000000     P000001010       
000001011        15.1103      1.000000     P000001011       
000001012        13.7687      1.000000     P000001012       
000001014        11.8242      1.000000     P000001014       
000001016        11.4171      1.000000     P000001016       
000001017        12.1579      1.000000     P000001017       
000001018        15.7609      1.000000     P000001018       
000001019        17.4296      1.000000     P000001019       
000001020        17.7240      1.000000     P000001020       
000001021        18.6070      0.000000            
000001024        11.6203      1.000000     P000001024       
000001025        11.8669      0.000000                      
000001026        9.9889       1.000000     P000001026       
000001027        7.6306       0.000000                      
000001028        9.7753       1.000000     P000001028       
000001029        6.7565       0.000000                      
000001030        6.8277       0.000000            
000001031        8.0057       1.000000     P000001031       
000001032        8.0005       1.000000     P000001032       
000001033        8.4695       1.000000     P000001033       
000001034        8.6734       1.000000     P000001034       
000001035        8.6960       1.000000     P000001035       
000001036        9.8397       1.000000     P000001036       
000001037        10.7370      1.000000     P000001037       
000001038        11.7849      1.000000     P000001038       
000001039        14.8664      1.000000     P000001039       
000001040        20.6150      1.000000     P000001040       
000001041        22.0006      1.000000     P000001041       
000001043        19.0462      1.000000     P000001043       
000001044        22.3475      1.000000     P000001044       
000001045        21.9713      1.000000     P000001045       
000001046        21.8978      1.000000     P000001046       
000001047        21.8843      1.000000     P000001047       
000001048        22.3009      1.000000     P000001048       
000001049        24.1572      1.000000     P000001049       
000001050        24.2389      1.000000     P000001050       
000001052        24.2378      1.000000     P000001052       
000001054        19.9788      1.000000     P000001054       
000001055        21.0006      1.000000     P000001055       
000001056        21.8375      1.000000     P000001056       
000001101        32.6843      1.000000     P000001101       
000001102        33.2658      1.000000     P000001102       
000001103        34.0763      1.000000     P000001103       
000001104        34.1343      1.000000     P000001104       
000001105        31.8784      1.000000     P000001105       
000001106        38.0000      1.000000     P000001106       
000001108        37.2703      1.000000     P000001108       
000001110        36.7366      1.000000     P000001110       
000001111        36.8248      1.000000     P000001111       
000001112        36.8975      1.000000     P000001112       
000001113        37.0032      1.000000     P000001113       
000001114        37.9443      1.000000     P000001114       
000001115        36.3302      1.000000     P000001115       
000001116        34.0288      1.000000     P000001116       
000001117        33.7375      1.000000     P000001117       
000001118        30.8780      1.000000     P000001118       
000001120        23.5219      1.000000     P000001120       
000001121        22.0094      1.000000     P000001121       
000001122        21.7322      1.000000     P000001122       
000001127        32.4139      0.000000            
000001128        31.5655      1.000000     P000001128       
000001129        30.2478      1.000000     P000001129       
000001130        29.5932      1.000000     P000001130       
000001131        28.4035      1.000000     P000001131       
000001132        30.5981      1.000000     P000001132       
000001133        31.9749      1.000000     P000001133       
000001134        32.1419      1.000000     P000001134       
000001136        33.7364      1.000000     P000001136       
000001137        33.8732      1.000000     P000001137       
000001138        34.2159      1.000000     P000001138       
000001139        31.2013      1.000000     P000001139       
000001140        30.7156      1.000000     P000001140       
000001141        27.6629      1.000000     P000001141       
000001142        28.9564      1.000000     P000001142       
000001143        32.1643      1.000000     P000001143       
000001144        35.2092      1.000000     P000001144       
000001145        36.0549      1.000000     P000001145       
000001146        32.8499      1.000000     P000001146       
000001147        31.0055      1.000000     P000001147       
000001148        28.1460      1.000000     P000001148       
000001149        29.1835      1.000000     P000001149       
000001150        31.9765      1.000000     P000001150       
000001151        33.7234      1.000000     P000001151       
000001153        31.6686      1.000000     P000001153       
000001154        30.5311      1.000000     P000001154       
000001201        25.2523      1.000000     P000001201       
000001202        25.6508      1.000000     P000001202       
000001204        26.7861      0.000000            
000001205        27.0187      1.000000     P000001205       
000001206        26.5335      1.000000     P000001206       
000001207        25.6192      1.000000     P000001207       
000001208        26.4884      1.000000     P000001208       
000001209        26.5482      1.000000     P000001209       
000001210        26.1058      1.000000     P000001210       
000001211        24.3276      1.000000     P000001211       
000001212        20.5110      1.000000     P000001212       
000001213        26.1508      1.000000     P000001213       
000001214        11.7044      1.000000     P000001214       
000001215        10.6130      1.000000     P000001215       
000001216        14.0737      1.000000     P000001216       
000001217        10.6802      1.000000     P000001217       
000001218        10.0059      1.000000     P000001218       
000001219        12.9520      1.000000     P000001219       
000001220        22.0243      1.000000     P000001220       
000001221        23.1809      1.000000     P000001221       
000001222        22.2434      1.000000     P000001222       
000001223        22.9024      1.000000     P000001223       
000001224        23.9224      1.000000     P000001224       
000001225        27.0720      1.000000     P000001225       
000001226        28.9869      1.000000     P000001226       
000001227        29.2077      1.000000     P000001227       
000001228        28.2978      1.000000     P000001228       
000001301        19.4343      1.000000     P000001301       
000001302        20.0098      1.000000     P000001302       
000001303        20.5397      1.000000     P000001303       
000001304        24.7485      1.000000     P000001304       
000001305        25.0827      1.000000     P000001305       
000001306        23.5584      1.000000     P000001306       
000001307        24.0510      1.000000     P000001307       
000001308        26.7582      1.000000     P000001308       
000001309        27.2607      1.000000     P000001309       
000001310        28.0980      1.000000     P000001310       
000001311        26.9651      1.000000     P000001311       
000001312        26.1022      1.000000     P000001312       
000001313        25.3146      1.000000     P000001313       
000001314        25.9642      0.000000            
000001316        14.9888      1.000000     P000001316       
000001317        14.5131      1.000000     P000001317       
000001318        14.0375      0.000000           
000001319        14.0000      1.000000     P000001319       
000001320        12.0905      1.000000     P000001320       
000001401        15.3390      1.000000     P000001401       
000001402        15.0381      1.000000     P000001402       
000001403        15.0057      1.000000     P000001403       
000001404        17.6630      1.000000     P000001404       
000001405        19.0536      1.000000     P000001405       
000001406        20.6821      1.000000     P000001406       
000001407        26.6793      1.000000     P000001407       
000001408        28.3602      1.000000     P000001408       
000001409        32.4721      1.000000     P000001409       
000001410        32.7450      1.000000     P000001410       
000001412        34.0375      0.000000             
000001413        33.9999      1.000000     P000001413       
000001414        32.8634      1.000000     P000001414       
000001415        32.5310      1.000000     P000001415       
000001416        32.0224      1.000000     P000001416       
000001417        31.5661      0.000000            
000001418        31.1020      1.000000     P000001418       
000001419        30.1476      0.000000            
000001420        28.9993      1.000000     P000001420       
000001422        28.8229      1.000000     P000001422       
000001423        28.6225      1.000000     P000001423       
000001425        22.3677      1.000000     P000001425       
000001426        30.0416      1.000000     P000001426       
000001427        30.0571      1.000000     P000001427       
000001429        30.7887      1.000000     P000001429       
000001430        31.8555      1.000000     P000001430       
000001432        33.0174      1.000000     P000001432       
000001433        32.5096      1.000000     P000001433       
000001435        29.4866      1.000000     P000001435       
000001436        25.9584      1.000000     P000001436       
000001437        25.3064      1.000000     P000001437       
000001438        23.5349      1.000000     P000001438       
000001439        24.2767      1.000000     P000001439       
000001440        26.1299      1.000000     P000001440       
000001441        28.1796      1.000000     P000001441       
000001442        28.8882      1.000000     P000001442       
000001444        28.9622      1.000000     P000001444       
000001445        28.8582      1.000000     P000001445       
000001446        27.7840      1.000000     P000001446       
000001447        23.2568      1.000000     P000001447       
000001448        24.7923      1.000000     P000001448       
000001450        20.9536      1.000000     P000001450       
000001501        26.9624      1.000000     P000001501       
000001502        26.5540      1.000000     P000001502       
000001503        26.9182      1.000000     P000001503       
000001504        27.1422      0.000000                      
000001505        28.2848      1.000000     P000001505       
000001506        28.1979      1.000000     P000001506       
000001507        28.0952      1.000000     P000001507       
000001508        27.9912      1.000000     P000001508       
000001509        28.0023      1.000000     P000001509       
000001510        26.8376      1.000000     P000001510       
000001511        26.4909      1.000000     P000001511       
000001512        27.3391      1.000000     P000001512       
000001513        29.7408      1.000000     P000001513       
000001514        30.7054      1.000000     P000001514       
000001515        31.9671      1.000000     P000001515       
000001516        32.1291      1.000000     P000001516       
000001517        32.0071      1.000000     P000001517       
000001518        31.0634      1.000000     P000001518       
000001519        29.3726      1.000000     P000001519       
000001520        28.4134      1.000000     P000001520       
000001521        27.6862      1.000000     P000001521       
000001522        28.4642      1.000000     P000001522       
000001523        28.6070      1.000000     P000001523       
000001524        25.0648      1.000000     P000001524       
000001525        24.6458      1.000000     P000001525       
000001526        26.7860      1.000000     P000001526       
000001527        31.1224      1.000000     P000001527       
000001529        34.0384      1.000000     P000001529       
000001530        33.7322      1.000000     P000001530       
000001531        32.8343      1.000000     P000001531       
000001532        31.7413      1.000000     P000001532       
000001533        28.5956      1.000000     P000001533       
000001534        28.7290      1.000000     P000001534       
000001535        29.2604      0.000000                      
000001536        29.4376      1.000000     P000001536       
000001538        29.2659      1.000000     P000001538       
000001539        29.2275      1.000000     P000001539       
000001540        29.2240      1.000000     P000001540       
000001541        32.7395      1.000000     P000001541       
000001542        31.7893      1.000000     P000001542       
000001543        30.0652      1.000000     P000001543       
000001544        28.1937      1.000000     P000001544       
000001545        28.0675      1.000000     P000001545       
000001546        26.1125      1.000000     P000001546       
000001547        26.0793      1.000000     P000001547       
000001548        27.6954      1.000000     P000001548       
000001549        32.4407      1.000000     P000001549       
000001550        32.0414      1.000000     P000001550       
000001551        32.0355      1.000000     P000001551       
000001601        4.0000       1.000000     P000001601       
000001602        4.0218       1.000000     P000001602       
000001603        4.2628       1.000000     P000001603       
000001604        4.0872       1.000000     P000001604       
000001605        3.9532       1.000000     P000001605       
000001606        4.6003       1.000000     P000001606       
000001607        6.5985       1.000000     P000001607       
000001608        6.2586       1.000000     P000001608       
000001609        6.0080       1.000000     P000001609       
000001610        4.9466       1.000000     P000001610       
000001611        4.5587       1.000000     P000001611       
000001707        8.0000       1.000000     P000001707       
000001708        8.0756       1.000000     P000001708       
000001710        7.3829       1.000000     P000001710       
000001711        6.6108       1.000000     P000001711       
000001712        7.2993       1.000000     P000001712       
000001714        8.4657       1.000000     P000001714       
000001799        6.0730       0.000000            
000001801        35.7189      1.000000     P000001801       
000001802        36.0012      1.000000     P000001802       
000001803        35.4870      1.000000     P000001803       
000001804        37.7264      1.000000     P000001804       
000001904        27.2313      1.000000     P000001904       
000001906        26.0000      1.000000     P000001906       
000001907        27.1900      0.000000                      
000002001        19.1947      1.000000     P000002001       
000002002        19.6850      1.000000     P000002002       
000002003        17.7179      1.000000     P000002003       
000002004        17.4071      1.000000     P000002004       
000002005        18.2070      1.000000     P000002005       
000002006        18.3793      1.000000     P000002006       
000002007        19.7599      1.000000     P000002007       
000002008        19.7987      1.000000     P000002008       
000002009        20.8253      1.000000     P000002009       
000002010        21.3793      1.000000     P000002010       
000002011        21.5833      1.000000     P000002011       
000002012        21.0728      1.000000     P000002012       
000002014        15.6309      1.000000     P000002014       
000002015        15.8300      1.000000     P000002015       
000002016        15.8137      1.000000     P000002016       
000002017        14.9147      1.000000     P000002017       
000002018        13.5533      1.000000     P000002018       
000002019        13.0930      1.000000     P000002019       
000002020        13.5299      1.000000     P000002020       
000002021        16.5377      1.000000     P000002021       
000002024        14.5439      1.000000     P000002024       
000002027        12.8166      1.000000     P000002027       
000002028        14.2444      1.000000     P000002028       
000002030        16.6000      1.000000     P000002030       
000002031        17.1013      1.000000     P000002031       
000002032        17.6776      1.000000     P000002032       
000002033        18.0003      1.000000     P000002033       
000002034        18.1643      1.000000     P000002034       
000002035        17.3057      1.000000     P000002035       
000002036        16.4167      1.000000     P000002036       
000002037        16.1077      1.000000     P000002037       
000002038        16.4676      1.000000     P000002038       
000002039        19.5427      1.000000     P000002039       
000002040        18.4243      0.000000            
000002041        18.0589      0.000000            
000002042        18.1420      1.000000     P000002042       
000002043        19.1088      1.000000     P000002043       
000002044        20.5191      1.000000     P000002044       
000002046        17.3781      1.000000     P000002046       
000002047        17.9192      1.000000     P000002047       
000002048        18.9451      0.000000            
000002049        18.5372      1.000000     P000002049       
000002050        17.8804      1.000000     P000002050       
000002051        18.4631      1.000000     P000002051       
000002052        19.7832      1.000000     P000002052       
000002053        21.5943      1.000000     P000002053       
000002054        21.6170      1.000000     P000002054       
000002055        21.2194      1.000000     P000002055       
000002056        20.5208      1.000000     P000002056       
000002057        20.5639      1.000000     P000002057       
000002059        16.9328      1.000000     P000002059       
000002062        14.3999      1.000000     P000002062       
000002063        18.0707      1.000000     P000002063       
000002064        17.8413      1.000000     P000002064       
000002065        18.1977      1.000000     P000002065       
000002066        18.0856      1.000000     P000002066       
000002067        18.0000      1.000000     P000002067       
000002076        20.2200      1.000000     P000002076       
000002077        19.7471      1.000000     P000002077       
000002080        18.0000      1.000000     P000002080       
000002081        17.8895      1.000000     P000002081       
000002082        16.5207      1.000000     P000002082       
000002083        16.4417      1.000000     P000002083       
000002084        15.3732      1.000000     P000002084       
000002086        14.8771      1.000000     P000002086       
000002088        13.7453      1.000000     P000002088       
000002089        12.1931      1.000000     P000002089       
000002090        10.0122      1.000000     P000002090       
000002091        9.3063       1.000000     P000002091       
000002093        7.9455       1.000000     P000002093       
000002094        9.0867       1.000000     P000002094       
000002095        9.9891       1.000000     P000002095       
000002097        9.9951       1.000000     P000002097       
000002099        8.1547       1.000000     P000002099       
000002100        8.1846       1.000000     P000002100       
000002102        9.4983       1.000000     P000002102       
000002103        10.0320      1.000000     P000002103       
000002104        10.2971      1.000000     P000002104       
000002105        11.6106      1.000000     P000002105       
000002107        9.9605       1.000000     P000002107       
000002108        10.3858      1.000000     P000002108       
000002109        9.7667       1.000000     P000002109       
000002110        10.6163      1.000000     P000002110       
000002111        11.1405      1.000000     P000002111       
000002112        9.5872       1.000000     P000002112       
000002113        9.8921       1.000000     P000002113       
000002114        11.1321      1.000000     P000002114       
000002115        12.2168      1.000000     P000002115       
000002116        13.9966      1.000000     P000002116       
000002117        12.8465      1.000000     P000002117       
000002118        11.5647      1.000000     P000002118       
000002119        13.4789      1.000000     P000002119       
000002121        14.0979      1.000000     P000002121       
000002122        14.2961      1.000000     P000002122       
000002123        15.0648      1.000000     P000002123       
000002124        14.9740      1.000000     P000002124       
000002125        14.0604      1.000000     P000002125       
000002126        13.2260      1.000000     P000002126       
000002127        11.4734      1.000000     P000002127       
000002128        15.9630      1.000000     P000002128       
000002129        16.1015      1.000000     P000002129       
000002131        16.3003      1.000000     P000002131       
000002134        19.1035      1.000000     P000002134       
000002135        18.4533      1.000000     P000002135       
000002136        17.2770      1.000000     P000002136       
000002137        17.3043      1.000000     P000002137       
000002138        15.6716      1.000000     P000002138       
000002140        13.7681      1.000000     P000002140       
000002141        15.1938      1.000000     P000002141       
000002142        15.3562      1.000000     P000002142       
000002143        15.0777      1.000000     P000002143       
000002145        12.7659      1.000000     P000002145       
000002146        10.2526      1.000000     P000002146       
000002147        9.8876       1.000000     P000002147       
000002148        10.2808      1.000000     P000002148       
000002201        27.2468      1.000000     P000002201       
000002202        26.0049      1.000000     P000002202       
000002203        25.9248      1.000000     P000002203       
000002204        25.8438      1.000000     P000002204       
000002205        27.2622      1.000000     P000002205       
000002206        28.2253      1.000000     P000002206       
000002207        28.8614      1.000000     P000002207       
000002208        29.7770      1.000000     P000002208       
000002209        28.0622      1.000000     P000002209       
000002210        24.9141      1.000000     P000002210       
000002211        23.9845      1.000000     P000002211       
000002212        25.1274      1.000000     P000002212       
000002213        26.0881      1.000000     P000002213       
000002214        25.3895      1.000000     P000002214       
000002215        17.5276      1.000000     P000002215       
000002216        15.1101      1.000000     P000002216       
000002217        15.1348      1.000000     P000002217       
000002301        14.6885      1.000000     P000002301       
000002302        16.0010      1.000000     P000002302       
000002304        15.4476      1.000000     P000002304       
000002305        14.0893      1.000000     P000002305       
000002306        16.3023      1.000000     P000002306       
000002307        16.2572      1.000000     P000002307       
000002308        13.7713      1.000000     P000002308       
000002310        11.7471      1.000000     P000002310       
000002401        21.4751      0.000000            
000002402        21.7825      1.000000     P000002402       
000002501        22.3203      1.000000     P000002501       
000002502        24.2776      1.000000     P000002502       
000002503        23.8578      1.000000     P000002503       
000002504        24.0000      1.000000     P000002504       
000002505        24.2615      1.000000     P000002505       
000002506        24.0501      1.000000     P000002506       
000002507        22.4769      1.000000     P000002507       
000002508        21.4609      1.000000     P000002508       
000002509        18.1307      1.000000     P000002509       
000002510        14.4694      1.000000     P000002510       
000002511        13.3295      1.000000     P000002511       
000002512        12.0000      1.000000     P000002512       
000002513        10.5263      1.000000     P000002513       
000002516        12.1967      1.000000     P000002516       
000002517        12.9563      1.000000     P000002517       
000002518        14.4885      1.000000     P000002518       
000002519        15.1066      1.000000     P000002519       
000002520        16.7142      1.000000     P000002520       
000002521        17.7973      1.000000     P000002521       
000002522        18.4326      1.000000     P000002522       
000002523        19.5324      1.000000     P000002523       
000002524        20.0150      1.000000     P000002524       
000002525        20.1208      1.000000     P000002525       
000002526        19.8038      1.000000     P000002526       
000002527        19.9977      1.000000     P000002527       
000002528        19.9938      1.000000     P000002528       
000002529        19.9387      1.000000     P000002529       
000002530        19.3194      1.000000     P000002530       
000002532        18.0970      1.000000     P000002532       
000002533        20.2715      1.000000     P000002533       
000002534        23.8188      1.000000     P000002534       
000002535        24.1951      1.000000     P000002535       
000002536        24.2636      1.000000     P000002536       
000002537        24.1855      1.000000     P000002537       
000002538        24.6750      1.000000     P000002538       
000002601        32.0107      1.000000     P000002601       
000002602        32.0000      1.000000     P000002602       
000002603        32.1943      1.000000     P000002603       
000002604        32.2493      1.000000     P000002604       
000002605        34.2156      1.000000     P000002605       
000002606        34.9120      1.000000     P000002606       
000002607        35.0291      1.000000     P000002607       
000002608        35.4209      1.000000     P000002608       
000002609        33.3958      1.000000     P000002609       
000002610        33.9945      1.000000     P000002610       
000002611        34.0169      1.000000     P000002611       
000002612        31.0384      1.000000     P000002612       
000002613        29.8832      1.000000     P000002613       
000002614        32.9347      1.000000     P000002614       
000002615        35.8273      1.000000     P000002615       
000002616        34.7890      1.000000     P000002616       
000002617        32.8496      1.000000     P000002617       
000002618        31.7911      1.000000     P000002618       
000002619        31.8629      1.000000     P000002619       
000002620        31.9057      1.000000     P000002620       
000002621        31.5717      1.000000     P000002621       
000002622        30.5453      1.000000     P000002622       
000002623        30.2142      1.000000     P000002623       
000002625        30.3731      1.000000     P000002625       
000002626        30.9528      1.000000     P000002626       
000002627        30.6298      1.000000     P000002627       
000002628        30.5318      1.000000     P000002628       
000002629        32.1077      1.000000     P000002629       
000002630        33.9513      1.000000     P000002630       
000002631        34.0894      1.000000     P000002631       
000002632        34.0000      1.000000     P000002632       
000002633        31.9928      1.000000     P000002633       
000002634        29.1023      1.000000     P000002634       
000002635        31.2874      1.000000     P000002635       
000002636        32.6442      1.000000     P000002636       
000002638        30.3284      1.000000     P000002638       
000002639        21.8839      1.000000     P000002639       
000002641        19.9424      1.000000     P000002641       
000002642        21.4891      1.000000     P000002642       
000002643        16.5939      1.000000     P000002643       
000002645        18.0615      1.000000     P000002645       